CM
CE
GW	1	9	0.000	-0.172	0	0.000	0.172	0	0.006
GW	2	9	0.082	-0.162	0	0.082	0.162	0	0.006
GW	3	9	0.183	-0.152	0	0.183	0.152	0	0.006
GW	4	9	0.319	-0.150	0	0.319	0.150	0	0.006
GW	5	9	0.459	-0.148	0	0.459	0.148	0	0.006
GW	6	9	0.553	-0.146	0	0.553	0.146	0	0.006
GW	7	9	0.693	-0.144	0	0.693	0.144	0	0.006
GE	0
LD	7	2	0	0	37700000
GN	-1
EK
EX	0	2	5	0	1	0	0	'Voltage source (1+j0) at wire 1 segment
FR	0	0	0	0	433	0
EN
